AMOSTRA/TUM/_ATERRAMENTO.dss
! Aterramento do neutro (no 4) dos secundarios de BT
! Reactor de 0.5 ohm entre o no 4 e a terra (no 0).
New Reactor.NEUTRO_2275815-8041728 phases=1 bus1=2275815-8041728.4 bus2=2275815-8041728.0 R=0.5 X=0
New Reactor.NEUTRO_2275816-8042226v phases=1 bus1=2275816-8042226v.4 bus2=2275816-8042226v.0 R=0.5 X=0
New Reactor.NEUTRO_2275817-8042130 phases=1 bus1=2275817-8042130.4 bus2=2275817-8042130.0 R=0.5 X=0
New Reactor.NEUTRO_2275818-8042512v phases=1 bus1=2275818-8042512v.4 bus2=2275818-8042512v.0 R=0.5 X=0
New Reactor.NEUTRO_2275819-8042646 phases=1 bus1=2275819-8042646.4 bus2=2275819-8042646.0 R=0.5 X=0
New Reactor.NEUTRO_2275826-8041555 phases=1 bus1=2275826-8041555.4 bus2=2275826-8041555.0 R=0.5 X=0
New Reactor.NEUTRO_2275827-8042358v phases=1 bus1=2275827-8042358v.4 bus2=2275827-8042358v.0 R=0.5 X=0
New Reactor.NEUTRO_2275828-8042510 phases=1 bus1=2275828-8042510.4 bus2=2275828-8042510.0 R=0.5 X=0
New Reactor.NEUTRO_2275829-8041862v phases=1 bus1=2275829-8041862v.4 bus2=2275829-8041862v.0 R=0.5 X=0
New Reactor.NEUTRO_2275830-11896023 phases=1 bus1=2275830-11896023.4 bus2=2275830-11896023.0 R=0.5 X=0
New Reactor.NEUTRO_2275832-8042362v phases=1 bus1=2275832-8042362v.4 bus2=2275832-8042362v.0 R=0.5 X=0
New Reactor.NEUTRO_2275833-11304784 phases=1 bus1=2275833-11304784.4 bus2=2275833-11304784.0 R=0.5 X=0
New Reactor.NEUTRO_2275838-8041551 phases=1 bus1=2275838-8041551.4 bus2=2275838-8041551.0 R=0.5 X=0
New Reactor.NEUTRO_2275839-8042361v phases=1 bus1=2275839-8042361v.4 bus2=2275839-8042361v.0 R=0.5 X=0
New Reactor.NEUTRO_2275840-8042336v phases=1 bus1=2275840-8042336v.4 bus2=2275840-8042336v.0 R=0.5 X=0
New Reactor.NEUTRO_2275851-8042048 phases=1 bus1=2275851-8042048.4 bus2=2275851-8042048.0 R=0.5 X=0
New Reactor.NEUTRO_2275852-8042440 phases=1 bus1=2275852-8042440.4 bus2=2275852-8042440.0 R=0.5 X=0
New Reactor.NEUTRO_2275853-8042218v phases=1 bus1=2275853-8042218v.4 bus2=2275853-8042218v.0 R=0.5 X=0
New Reactor.NEUTRO_2275855-11304731 phases=1 bus1=2275855-11304731.4 bus2=2275855-11304731.0 R=0.5 X=0
New Reactor.NEUTRO_2275856-11304728 phases=1 bus1=2275856-11304728.4 bus2=2275856-11304728.0 R=0.5 X=0
New Reactor.NEUTRO_2275859-8042210 phases=1 bus1=2275859-8042210.4 bus2=2275859-8042210.0 R=0.5 X=0
New Reactor.NEUTRO_2275860-8042519v phases=1 bus1=2275860-8042519v.4 bus2=2275860-8042519v.0 R=0.5 X=0
New Reactor.NEUTRO_2275867-12432036v phases=1 bus1=2275867-12432036v.4 bus2=2275867-12432036v.0 R=0.5 X=0
New Reactor.NEUTRO_2275868-8041585v phases=1 bus1=2275868-8041585v.4 bus2=2275868-8041585v.0 R=0.5 X=0
New Reactor.NEUTRO_2275869-8041548 phases=1 bus1=2275869-8041548.4 bus2=2275869-8041548.0 R=0.5 X=0
New Reactor.NEUTRO_2275870-8042470 phases=1 bus1=2275870-8042470.4 bus2=2275870-8042470.0 R=0.5 X=0
New Reactor.NEUTRO_2275871-8041731v phases=1 bus1=2275871-8041731v.4 bus2=2275871-8041731v.0 R=0.5 X=0
New Reactor.NEUTRO_2275872-8042338 phases=1 bus1=2275872-8042338.4 bus2=2275872-8042338.0 R=0.5 X=0
New Reactor.NEUTRO_2275873-8042303 phases=1 bus1=2275873-8042303.4 bus2=2275873-8042303.0 R=0.5 X=0
New Reactor.NEUTRO_2275874-8042175 phases=1 bus1=2275874-8042175.4 bus2=2275874-8042175.0 R=0.5 X=0
New Reactor.NEUTRO_2275876-11304876 phases=1 bus1=2275876-11304876.4 bus2=2275876-11304876.0 R=0.5 X=0
New Reactor.NEUTRO_2275877-11304838 phases=1 bus1=2275877-11304838.4 bus2=2275877-11304838.0 R=0.5 X=0
New Reactor.NEUTRO_2275881-8042097 phases=1 bus1=2275881-8042097.4 bus2=2275881-8042097.0 R=0.5 X=0
New Reactor.NEUTRO_2275882-8042474 phases=1 bus1=2275882-8042474.4 bus2=2275882-8042474.0 R=0.5 X=0
New Reactor.NEUTRO_2275883-8041675 phases=1 bus1=2275883-8041675.4 bus2=2275883-8041675.0 R=0.5 X=0
New Reactor.NEUTRO_2275884-8042490 phases=1 bus1=2275884-8042490.4 bus2=2275884-8042490.0 R=0.5 X=0
New Reactor.NEUTRO_2275885-11896025 phases=1 bus1=2275885-11896025.4 bus2=2275885-11896025.0 R=0.5 X=0
New Reactor.NEUTRO_2275886-8042508 phases=1 bus1=2275886-8042508.4 bus2=2275886-8042508.0 R=0.5 X=0
New Reactor.NEUTRO_2275887-8042227v phases=1 bus1=2275887-8042227v.4 bus2=2275887-8042227v.0 R=0.5 X=0
New Reactor.NEUTRO_2275890-8042231v phases=1 bus1=2275890-8042231v.4 bus2=2275890-8042231v.0 R=0.5 X=0
New Reactor.NEUTRO_2275891-8042515v phases=1 bus1=2275891-8042515v.4 bus2=2275891-8042515v.0 R=0.5 X=0
New Reactor.NEUTRO_2275892-8042179 phases=1 bus1=2275892-8042179.4 bus2=2275892-8042179.0 R=0.5 X=0
New Reactor.NEUTRO_2275893-8041583 phases=1 bus1=2275893-8041583.4 bus2=2275893-8041583.0 R=0.5 X=0
New Reactor.NEUTRO_2275894-8041976v phases=1 bus1=2275894-8041976v.4 bus2=2275894-8041976v.0 R=0.5 X=0
New Reactor.NEUTRO_2275895-8042127v phases=1 bus1=2275895-8042127v.4 bus2=2275895-8042127v.0 R=0.5 X=0
New Reactor.NEUTRO_2275896-8041725v phases=1 bus1=2275896-8041725v.4 bus2=2275896-8041725v.0 R=0.5 X=0
New Reactor.NEUTRO_2275898-11304789 phases=1 bus1=2275898-11304789.4 bus2=2275898-11304789.0 R=0.5 X=0
New Reactor.NEUTRO_2275903-8042128v phases=1 bus1=2275903-8042128v.4 bus2=2275903-8042128v.0 R=0.5 X=0
New Reactor.NEUTRO_2275904-8042520v phases=1 bus1=2275904-8042520v.4 bus2=2275904-8042520v.0 R=0.5 X=0
New Reactor.NEUTRO_2275905-8042095 phases=1 bus1=2275905-8042095.4 bus2=2275905-8042095.0 R=0.5 X=0
New Reactor.NEUTRO_2275906-8041855 phases=1 bus1=2275906-8041855.4 bus2=2275906-8041855.0 R=0.5 X=0
New Reactor.NEUTRO_2275911-8041644 phases=1 bus1=2275911-8041644.4 bus2=2275911-8041644.0 R=0.5 X=0
New Reactor.NEUTRO_2275912-8042652v phases=1 bus1=2275912-8042652v.4 bus2=2275912-8042652v.0 R=0.5 X=0
New Reactor.NEUTRO_2275913-8042523v phases=1 bus1=2275913-8042523v.4 bus2=2275913-8042523v.0 R=0.5 X=0
New Reactor.NEUTRO_2275914-8042229v phases=1 bus1=2275914-8042229v.4 bus2=2275914-8042229v.0 R=0.5 X=0
New Reactor.NEUTRO_2275915-8041581v phases=1 bus1=2275915-8041581v.4 bus2=2275915-8041581v.0 R=0.5 X=0
New Reactor.NEUTRO_2275918-11304633 phases=1 bus1=2275918-11304633.4 bus2=2275918-11304633.0 R=0.5 X=0
New Reactor.NEUTRO_2275919-8041851 phases=1 bus1=2275919-8041851.4 bus2=2275919-8041851.0 R=0.5 X=0
New Reactor.NEUTRO_2275920-8041729v phases=1 bus1=2275920-8041729v.4 bus2=2275920-8041729v.0 R=0.5 X=0
New Reactor.NEUTRO_2275921-8042232v phases=1 bus1=2275921-8042232v.4 bus2=2275921-8042232v.0 R=0.5 X=0
New Reactor.NEUTRO_2275922-8041730v phases=1 bus1=2275922-8041730v.4 bus2=2275922-8041730v.0 R=0.5 X=0
New Reactor.NEUTRO_2275923-8041861 phases=1 bus1=2275923-8041861.4 bus2=2275923-8041861.0 R=0.5 X=0
New Reactor.NEUTRO_2275929-8041584v phases=1 bus1=2275929-8041584v.4 bus2=2275929-8041584v.0 R=0.5 X=0
New Reactor.NEUTRO_2275930-8042466v phases=1 bus1=2275930-8042466v.4 bus2=2275930-8042466v.0 R=0.5 X=0
New Reactor.NEUTRO_2275931-8041726v phases=1 bus1=2275931-8041726v.4 bus2=2275931-8041726v.0 R=0.5 X=0
New Reactor.NEUTRO_2275932-8042134 phases=1 bus1=2275932-8042134.4 bus2=2275932-8042134.0 R=0.5 X=0
New Reactor.NEUTRO_2275933-8042177 phases=1 bus1=2275933-8042177.4 bus2=2275933-8042177.0 R=0.5 X=0
New Reactor.NEUTRO_2275934-8041864v phases=1 bus1=2275934-8041864v.4 bus2=2275934-8041864v.0 R=0.5 X=0
New Reactor.NEUTRO_2275935-8042171 phases=1 bus1=2275935-8042171.4 bus2=2275935-8042171.0 R=0.5 X=0
New Reactor.NEUTRO_2275936-8042042 phases=1 bus1=2275936-8042042.4 bus2=2275936-8042042.0 R=0.5 X=0
New Reactor.NEUTRO_2275937-8042667v phases=1 bus1=2275937-8042667v.4 bus2=2275937-8042667v.0 R=0.5 X=0
New Reactor.NEUTRO_2275938-8041589v phases=1 bus1=2275938-8041589v.4 bus2=2275938-8041589v.0 R=0.5 X=0
New Reactor.NEUTRO_2275939-8042522v phases=1 bus1=2275939-8042522v.4 bus2=2275939-8042522v.0 R=0.5 X=0
New Reactor.NEUTRO_2275940-8041646 phases=1 bus1=2275940-8041646.4 bus2=2275940-8041646.0 R=0.5 X=0
New Reactor.NEUTRO_2275948-8042344 phases=1 bus1=2275948-8042344.4 bus2=2275948-8042344.0 R=0.5 X=0
New Reactor.NEUTRO_2275949-11862406v phases=1 bus1=2275949-11862406v.4 bus2=2275949-11862406v.0 R=0.5 X=0
New Reactor.NEUTRO_2275950-8042360 phases=1 bus1=2275950-8042360.4 bus2=2275950-8042360.0 R=0.5 X=0
New Reactor.NEUTRO_2275951-8042230v phases=1 bus1=2275951-8042230v.4 bus2=2275951-8042230v.0 R=0.5 X=0
New Reactor.NEUTRO_2275952-8042225v phases=1 bus1=2275952-8042225v.4 bus2=2275952-8042225v.0 R=0.5 X=0
New Reactor.NEUTRO_2275959-8041559 phases=1 bus1=2275959-8041559.4 bus2=2275959-8041559.0 R=0.5 X=0
New Reactor.NEUTRO_2275960-8042233v phases=1 bus1=2275960-8042233v.4 bus2=2275960-8042233v.0 R=0.5 X=0
New Reactor.NEUTRO_2275961-8042521v phases=1 bus1=2275961-8042521v.4 bus2=2275961-8042521v.0 R=0.5 X=0
New Reactor.NEUTRO_2275962-8041732v phases=1 bus1=2275962-8041732v.4 bus2=2275962-8041732v.0 R=0.5 X=0
New Reactor.NEUTRO_2275963-8041978v phases=1 bus1=2275963-8041978v.4 bus2=2275963-8041978v.0 R=0.5 X=0
New Reactor.NEUTRO_2275964-11304737 phases=1 bus1=2275964-11304737.4 bus2=2275964-11304737.0 R=0.5 X=0
New Reactor.NEUTRO_2275965-11304744 phases=1 bus1=2275965-11304744.4 bus2=2275965-11304744.0 R=0.5 X=0
New Reactor.NEUTRO_2275969-8042511v phases=1 bus1=2275969-8042511v.4 bus2=2275969-8042511v.0 R=0.5 X=0
New Reactor.NEUTRO_2275970-8042514v phases=1 bus1=2275970-8042514v.4 bus2=2275970-8042514v.0 R=0.5 X=0
New Reactor.NEUTRO_2275975-8042516v phases=1 bus1=2275975-8042516v.4 bus2=2275975-8042516v.0 R=0.5 X=0
New Reactor.NEUTRO_2275977-11304749 phases=1 bus1=2275977-11304749.4 bus2=2275977-11304749.0 R=0.5 X=0
New Reactor.NEUTRO_2280764-8076784 phases=1 bus1=2280764-8076784.4 bus2=2280764-8076784.0 R=0.5 X=0
New Reactor.NEUTRO_2280765-8075954v phases=1 bus1=2280765-8075954v.4 bus2=2280765-8075954v.0 R=0.5 X=0
New Reactor.NEUTRO_2280766-11896064 phases=1 bus1=2280766-11896064.4 bus2=2280766-11896064.0 R=0.5 X=0
New Reactor.NEUTRO_2280767-8078830v phases=1 bus1=2280767-8078830v.4 bus2=2280767-8078830v.0 R=0.5 X=0
New Reactor.NEUTRO_2280768-8074366 phases=1 bus1=2280768-8074366.4 bus2=2280768-8074366.0 R=0.5 X=0
New Reactor.NEUTRO_2280769-8074502 phases=1 bus1=2280769-8074502.4 bus2=2280769-8074502.0 R=0.5 X=0
New Reactor.NEUTRO_2280770-8078794v phases=1 bus1=2280770-8078794v.4 bus2=2280770-8078794v.0 R=0.5 X=0
New Reactor.NEUTRO_2280771-8078827v phases=1 bus1=2280771-8078827v.4 bus2=2280771-8078827v.0 R=0.5 X=0
New Reactor.NEUTRO_2280772-11896087 phases=1 bus1=2280772-11896087.4 bus2=2280772-11896087.0 R=0.5 X=0
New Reactor.NEUTRO_2280773-12181721 phases=1 bus1=2280773-12181721.4 bus2=2280773-12181721.0 R=0.5 X=0
New Reactor.NEUTRO_2280774-8077723v phases=1 bus1=2280774-8077723v.4 bus2=2280774-8077723v.0 R=0.5 X=0
New Reactor.NEUTRO_2280775-8076288v phases=1 bus1=2280775-8076288v.4 bus2=2280775-8076288v.0 R=0.5 X=0
New Reactor.NEUTRO_2280777-8074202v phases=1 bus1=2280777-8074202v.4 bus2=2280777-8074202v.0 R=0.5 X=0
New Reactor.NEUTRO_2280778-8076602v phases=1 bus1=2280778-8076602v.4 bus2=2280778-8076602v.0 R=0.5 X=0
New Reactor.NEUTRO_2280779-8074300v phases=1 bus1=2280779-8074300v.4 bus2=2280779-8074300v.0 R=0.5 X=0
New Reactor.NEUTRO_2280780-8076298v phases=1 bus1=2280780-8076298v.4 bus2=2280780-8076298v.0 R=0.5 X=0
New Reactor.NEUTRO_2280781-8078681v phases=1 bus1=2280781-8078681v.4 bus2=2280781-8078681v.0 R=0.5 X=0
New Reactor.NEUTRO_2280782-8075470 phases=1 bus1=2280782-8075470.4 bus2=2280782-8075470.0 R=0.5 X=0
New Reactor.NEUTRO_2280788-8076274 phases=1 bus1=2280788-8076274.4 bus2=2280788-8076274.0 R=0.5 X=0
New Reactor.NEUTRO_2280789-8075788v phases=1 bus1=2280789-8075788v.4 bus2=2280789-8075788v.0 R=0.5 X=0
New Reactor.NEUTRO_2280790-8078358 phases=1 bus1=2280790-8078358.4 bus2=2280790-8078358.0 R=0.5 X=0
New Reactor.NEUTRO_2280808-8074285 phases=1 bus1=2280808-8074285.4 bus2=2280808-8074285.0 R=0.5 X=0
New Reactor.NEUTRO_2280809-8077515 phases=1 bus1=2280809-8077515.4 bus2=2280809-8077515.0 R=0.5 X=0
New Reactor.NEUTRO_2280810-8076291v phases=1 bus1=2280810-8076291v.4 bus2=2280810-8076291v.0 R=0.5 X=0
New Reactor.NEUTRO_2280811-8074957v phases=1 bus1=2280811-8074957v.4 bus2=2280811-8074957v.0 R=0.5 X=0
New Reactor.NEUTRO_2280812-8076276v phases=1 bus1=2280812-8076276v.4 bus2=2280812-8076276v.0 R=0.5 X=0
New Reactor.NEUTRO_2280813-8077737 phases=1 bus1=2280813-8077737.4 bus2=2280813-8077737.0 R=0.5 X=0
New Reactor.NEUTRO_2280814-8078195 phases=1 bus1=2280814-8078195.4 bus2=2280814-8078195.0 R=0.5 X=0
New Reactor.NEUTRO_2280815-8075805v phases=1 bus1=2280815-8075805v.4 bus2=2280815-8075805v.0 R=0.5 X=0
New Reactor.NEUTRO_2280816-8076277v phases=1 bus1=2280816-8076277v.4 bus2=2280816-8076277v.0 R=0.5 X=0
New Reactor.NEUTRO_2280817-8074407v phases=1 bus1=2280817-8074407v.4 bus2=2280817-8074407v.0 R=0.5 X=0
New Reactor.NEUTRO_2280818-12576636v phases=1 bus1=2280818-12576636v.4 bus2=2280818-12576636v.0 R=0.5 X=0
New Reactor.NEUTRO_2280819-12348319 phases=1 bus1=2280819-12348319.4 bus2=2280819-12348319.0 R=0.5 X=0
New Reactor.NEUTRO_2280820-8078371v phases=1 bus1=2280820-8078371v.4 bus2=2280820-8078371v.0 R=0.5 X=0
New Reactor.NEUTRO_2280821-8076293v phases=1 bus1=2280821-8076293v.4 bus2=2280821-8076293v.0 R=0.5 X=0
New Reactor.NEUTRO_2280822-8077387v phases=1 bus1=2280822-8077387v.4 bus2=2280822-8077387v.0 R=0.5 X=0
New Reactor.NEUTRO_2280823-8076295v phases=1 bus1=2280823-8076295v.4 bus2=2280823-8076295v.0 R=0.5 X=0
New Reactor.NEUTRO_2280824-8078813v phases=1 bus1=2280824-8078813v.4 bus2=2280824-8078813v.0 R=0.5 X=0
New Reactor.NEUTRO_2280825-8077972 phases=1 bus1=2280825-8077972.4 bus2=2280825-8077972.0 R=0.5 X=0
New Reactor.NEUTRO_2280826-8078350v phases=1 bus1=2280826-8078350v.4 bus2=2280826-8078350v.0 R=0.5 X=0
New Reactor.NEUTRO_2280827-8078353v phases=1 bus1=2280827-8078353v.4 bus2=2280827-8078353v.0 R=0.5 X=0
New Reactor.NEUTRO_2280828-8075800v phases=1 bus1=2280828-8075800v.4 bus2=2280828-8075800v.0 R=0.5 X=0
New Reactor.NEUTRO_2280829-8074380v phases=1 bus1=2280829-8074380v.4 bus2=2280829-8074380v.0 R=0.5 X=0
New Reactor.NEUTRO_2280830-8074378v phases=1 bus1=2280830-8074378v.4 bus2=2280830-8074378v.0 R=0.5 X=0
New Reactor.NEUTRO_2280841-8076782 phases=1 bus1=2280841-8076782.4 bus2=2280841-8076782.0 R=0.5 X=0
New Reactor.NEUTRO_2280842-8078368 phases=1 bus1=2280842-8078368.4 bus2=2280842-8078368.0 R=0.5 X=0
New Reactor.NEUTRO_2280843-8074952 phases=1 bus1=2280843-8074952.4 bus2=2280843-8074952.0 R=0.5 X=0
New Reactor.NEUTRO_2280844-8078804v phases=1 bus1=2280844-8078804v.4 bus2=2280844-8078804v.0 R=0.5 X=0
New Reactor.NEUTRO_2280845-11896027 phases=1 bus1=2280845-11896027.4 bus2=2280845-11896027.0 R=0.5 X=0
New Reactor.NEUTRO_2280846-11896054 phases=1 bus1=2280846-11896054.4 bus2=2280846-11896054.0 R=0.5 X=0
New Reactor.NEUTRO_2280847-8075400 phases=1 bus1=2280847-8075400.4 bus2=2280847-8075400.0 R=0.5 X=0
New Reactor.NEUTRO_2280848-8077622 phases=1 bus1=2280848-8077622.4 bus2=2280848-8077622.0 R=0.5 X=0
New Reactor.NEUTRO_2280849-11862719 phases=1 bus1=2280849-11862719.4 bus2=2280849-11862719.0 R=0.5 X=0
New Reactor.NEUTRO_2280850-8075826v phases=1 bus1=2280850-8075826v.4 bus2=2280850-8075826v.0 R=0.5 X=0
New Reactor.NEUTRO_2280851-8075635 phases=1 bus1=2280851-8075635.4 bus2=2280851-8075635.0 R=0.5 X=0
New Reactor.NEUTRO_2280852-8074513v phases=1 bus1=2280852-8074513v.4 bus2=2280852-8074513v.0 R=0.5 X=0
New Reactor.NEUTRO_2280853-8078812v phases=1 bus1=2280853-8078812v.4 bus2=2280853-8078812v.0 R=0.5 X=0
New Reactor.NEUTRO_2280854-12576591 phases=1 bus1=2280854-12576591.4 bus2=2280854-12576591.0 R=0.5 X=0
New Reactor.NEUTRO_2280855-8077840v phases=1 bus1=2280855-8077840v.4 bus2=2280855-8077840v.0 R=0.5 X=0
New Reactor.NEUTRO_2280856-8076766v phases=1 bus1=2280856-8076766v.4 bus2=2280856-8076766v.0 R=0.5 X=0
New Reactor.NEUTRO_2280857-8078773v phases=1 bus1=2280857-8078773v.4 bus2=2280857-8078773v.0 R=0.5 X=0
New Reactor.NEUTRO_2280858-8074941v phases=1 bus1=2280858-8074941v.4 bus2=2280858-8074941v.0 R=0.5 X=0
New Reactor.NEUTRO_2280859-8078777v phases=1 bus1=2280859-8078777v.4 bus2=2280859-8078777v.0 R=0.5 X=0
New Reactor.NEUTRO_2280861-8078772v phases=1 bus1=2280861-8078772v.4 bus2=2280861-8078772v.0 R=0.5 X=0
New Reactor.NEUTRO_2280863-8076144v phases=1 bus1=2280863-8076144v.4 bus2=2280863-8076144v.0 R=0.5 X=0
New Reactor.NEUTRO_2280869-8074377v phases=1 bus1=2280869-8074377v.4 bus2=2280869-8074377v.0 R=0.5 X=0
New Reactor.NEUTRO_2280870-8076132 phases=1 bus1=2280870-8076132.4 bus2=2280870-8076132.0 R=0.5 X=0
New Reactor.NEUTRO_2280871-8078811v phases=1 bus1=2280871-8078811v.4 bus2=2280871-8078811v.0 R=0.5 X=0
New Reactor.NEUTRO_2280872-8078370v phases=1 bus1=2280872-8078370v.4 bus2=2280872-8078370v.0 R=0.5 X=0
New Reactor.NEUTRO_2280873-8076264v phases=1 bus1=2280873-8076264v.4 bus2=2280873-8076264v.0 R=0.5 X=0
New Reactor.NEUTRO_2280874-8076771v phases=1 bus1=2280874-8076771v.4 bus2=2280874-8076771v.0 R=0.5 X=0
New Reactor.NEUTRO_2280877-8076270v phases=1 bus1=2280877-8076270v.4 bus2=2280877-8076270v.0 R=0.5 X=0
New Reactor.NEUTRO_2280878-8075798v phases=1 bus1=2280878-8075798v.4 bus2=2280878-8075798v.0 R=0.5 X=0
New Reactor.NEUTRO_2280879-8075564 phases=1 bus1=2280879-8075564.4 bus2=2280879-8075564.0 R=0.5 X=0
New Reactor.NEUTRO_2280880-8078269 phases=1 bus1=2280880-8078269.4 bus2=2280880-8078269.0 R=0.5 X=0
New Reactor.NEUTRO_2280896-8077400 phases=1 bus1=2280896-8077400.4 bus2=2280896-8077400.0 R=0.5 X=0
New Reactor.NEUTRO_2280897-8074385v phases=1 bus1=2280897-8074385v.4 bus2=2280897-8074385v.0 R=0.5 X=0
New Reactor.NEUTRO_2280898-8076165v phases=1 bus1=2280898-8076165v.4 bus2=2280898-8076165v.0 R=0.5 X=0
New Reactor.NEUTRO_2280899-8074954v phases=1 bus1=2280899-8074954v.4 bus2=2280899-8074954v.0 R=0.5 X=0
New Reactor.NEUTRO_2280900-8075619v phases=1 bus1=2280900-8075619v.4 bus2=2280900-8075619v.0 R=0.5 X=0
New Reactor.NEUTRO_2280901-8076279 phases=1 bus1=2280901-8076279.4 bus2=2280901-8076279.0 R=0.5 X=0
New Reactor.NEUTRO_2280902-8075830 phases=1 bus1=2280902-8075830.4 bus2=2280902-8075830.0 R=0.5 X=0
New Reactor.NEUTRO_2280903-8075982v phases=1 bus1=2280903-8075982v.4 bus2=2280903-8075982v.0 R=0.5 X=0
New Reactor.NEUTRO_2280904-8075707v phases=1 bus1=2280904-8075707v.4 bus2=2280904-8075707v.0 R=0.5 X=0
New Reactor.NEUTRO_2280905-8074970v phases=1 bus1=2280905-8074970v.4 bus2=2280905-8074970v.0 R=0.5 X=0
New Reactor.NEUTRO_2280906-8078344 phases=1 bus1=2280906-8078344.4 bus2=2280906-8078344.0 R=0.5 X=0
New Reactor.NEUTRO_2280907-8078888 phases=1 bus1=2280907-8078888.4 bus2=2280907-8078888.0 R=0.5 X=0
New Reactor.NEUTRO_2280908-8077725 phases=1 bus1=2280908-8077725.4 bus2=2280908-8077725.0 R=0.5 X=0
New Reactor.NEUTRO_2280909-8078377v phases=1 bus1=2280909-8078377v.4 bus2=2280909-8078377v.0 R=0.5 X=0
New Reactor.NEUTRO_2280910-8074971v phases=1 bus1=2280910-8074971v.4 bus2=2280910-8074971v.0 R=0.5 X=0
New Reactor.NEUTRO_2280911-12292308 phases=1 bus1=2280911-12292308.4 bus2=2280911-12292308.0 R=0.5 X=0
New Reactor.NEUTRO_2280912-8076095 phases=1 bus1=2280912-8076095.4 bus2=2280912-8076095.0 R=0.5 X=0
New Reactor.NEUTRO_2280913-8074381v phases=1 bus1=2280913-8074381v.4 bus2=2280913-8074381v.0 R=0.5 X=0
New Reactor.NEUTRO_2280920-8075939 phases=1 bus1=2280920-8075939.4 bus2=2280920-8075939.0 R=0.5 X=0
New Reactor.NEUTRO_2280921-8078366v phases=1 bus1=2280921-8078366v.4 bus2=2280921-8078366v.0 R=0.5 X=0
New Reactor.NEUTRO_2280922-12043383 phases=1 bus1=2280922-12043383.4 bus2=2280922-12043383.0 R=0.5 X=0
New Reactor.NEUTRO_2280923-8077427 phases=1 bus1=2280923-8077427.4 bus2=2280923-8077427.0 R=0.5 X=0
New Reactor.NEUTRO_2280924-8075973 phases=1 bus1=2280924-8075973.4 bus2=2280924-8075973.0 R=0.5 X=0
New Reactor.NEUTRO_2280925-8077851v phases=1 bus1=2280925-8077851v.4 bus2=2280925-8077851v.0 R=0.5 X=0
New Reactor.NEUTRO_2280926-8078397v phases=1 bus1=2280926-8078397v.4 bus2=2280926-8078397v.0 R=0.5 X=0
New Reactor.NEUTRO_2280927-8077297v phases=1 bus1=2280927-8077297v.4 bus2=2280927-8077297v.0 R=0.5 X=0
New Reactor.NEUTRO_2280928-11896059 phases=1 bus1=2280928-11896059.4 bus2=2280928-11896059.0 R=0.5 X=0
New Reactor.NEUTRO_2280929-8075392 phases=1 bus1=2280929-8075392.4 bus2=2280929-8075392.0 R=0.5 X=0
New Reactor.NEUTRO_2280930-8077833v phases=1 bus1=2280930-8077833v.4 bus2=2280930-8077833v.0 R=0.5 X=0
New Reactor.NEUTRO_2280931-8075819v phases=1 bus1=2280931-8075819v.4 bus2=2280931-8075819v.0 R=0.5 X=0
New Reactor.NEUTRO_2280932-8076791 phases=1 bus1=2280932-8076791.4 bus2=2280932-8076791.0 R=0.5 X=0
New Reactor.NEUTRO_2280933-8074319 phases=1 bus1=2280933-8074319.4 bus2=2280933-8074319.0 R=0.5 X=0
New Reactor.NEUTRO_2280934-8075404 phases=1 bus1=2280934-8075404.4 bus2=2280934-8075404.0 R=0.5 X=0
New Reactor.NEUTRO_2280935-8076757v phases=1 bus1=2280935-8076757v.4 bus2=2280935-8076757v.0 R=0.5 X=0
New Reactor.NEUTRO_2280936-8076758v phases=1 bus1=2280936-8076758v.4 bus2=2280936-8076758v.0 R=0.5 X=0
...
